Version 4
SHEET 1 1260 1024
WIRE 384 -16 304 -16
WIRE -896 96 -928 96
WIRE -272 96 -320 96
WIRE 176 96 16 96
WIRE 304 96 304 -16
WIRE 304 96 176 96
WIRE 432 96 304 96
WIRE 672 96 432 96
WIRE 928 96 672 96
WIRE -928 144 -928 96
WIRE 176 192 176 96
WIRE 432 192 432 96
WIRE 672 192 672 96
WIRE 928 192 928 96
WIRE 16 224 16 96
WIRE -320 240 -320 96
WIRE 368 256 304 256
WIRE 608 256 496 256
WIRE 864 256 736 256
WIRE 1136 256 992 256
WIRE -928 288 -928 224
WIRE 304 352 304 256
WIRE 320 352 304 352
WIRE 16 400 16 288
WIRE 176 400 176 320
WIRE 176 400 16 400
WIRE 304 400 176 400
WIRE 432 400 432 320
WIRE 432 400 304 400
WIRE 672 400 672 320
WIRE 672 400 432 400
WIRE 928 400 928 320
WIRE 928 400 672 400
WIRE -928 448 -928 368
WIRE -320 448 -320 320
WIRE 304 448 304 400
WIRE 1104 528 880 528
WIRE 1104 640 880 640
WIRE 1104 736 880 736
WIRE 1104 880 880 880
FLAG 384 -16 VDD
IOPIN 384 -16 BiDir
FLAG -272 96 VDD
IOPIN -272 96 BiDir
FLAG -320 448 0
FLAG 304 448 0
FLAG -896 96 Vin
IOPIN -896 96 BiDir
FLAG -928 448 0
FLAG 320 352 Vin
IOPIN 320 352 BiDir
FLAG 1136 256 OUT
IOPIN 1136 256 BiDir
DATAFLAG 544 256 "$"
DATAFLAG 304 320 "$"
DATAFLAG 304 -16 "$"
DATAFLAG 304 400 "$"
DATAFLAG -304 96 "$"
SYMBOL receptor_amp 176 256 R0
SYMATTR InstName X1
SYMBOL voltage -320 224 R0
SYMATTR InstName V1
SYMATTR Value 5
SYMBOL filter 432 256 R0
SYMATTR InstName X2
SYMBOL bv -928 128 R0
SYMATTR InstName B1
SYMATTR Value V=0.2*(white(1e6*time))
SYMBOL voltage -928 272 R0
SYMATTR InstName V2
SYMATTR Value EXP(0 2.5 0 4.5u 100u 7u 1m 3 20m)
SYMBOL cap 0 224 R0
SYMATTR InstName C1
SYMATTR Value 100n
SYMBOL Bascule_Schmitt 672 272 R0
SYMATTR InstName X4
SYMBOL decode 912 272 R0
SYMATTR InstName X3
TEXT -64 -80 Left 2 !.tran 50 .1
TEXT 352 -104 Left 2 !.wave signal_post_schmidt.wav 16 10000K V(OUT)
