Version 4
SHEET 1 2020 2028
WIRE 1680 -144 -48 -144
WIRE 960 -80 48 -80
WIRE 160 16 160 -48
WIRE 160 176 160 96
WIRE 240 176 160 176
WIRE 160 224 160 176
WIRE 240 224 224 224
WIRE 1456 272 464 272
WIRE 2016 272 1456 272
WIRE 48 288 48 -80
WIRE 48 288 -128 288
WIRE -16 320 -16 -48
WIRE 240 320 -16 320
WIRE -16 400 -16 320
WIRE 240 400 -16 400
WIRE 960 624 960 -80
WIRE 960 624 880 624
WIRE 1072 624 960 624
WIRE 576 704 576 448
WIRE 1488 784 1296 784
WIRE 1760 784 1680 784
WIRE 1408 816 1296 816
WIRE 1456 816 1456 272
WIRE 1488 816 1456 816
WIRE 576 880 576 784
WIRE 688 880 576 880
WIRE 576 928 576 880
WIRE 608 928 576 928
WIRE 688 928 672 928
WIRE 1584 928 1456 928
WIRE 496 992 496 528
WIRE 688 992 496 992
WIRE 544 1024 544 448
WIRE 688 1024 544 1024
WIRE 544 1104 544 1024
WIRE 688 1104 544 1104
WIRE 896 1808 896 1728
WIRE 384 1824 384 1744
WIRE 384 1968 384 1904
WIRE 384 1968 80 1968
WIRE 544 1968 384 1968
WIRE 896 1968 896 1888
WIRE 896 1968 544 1968
WIRE 1488 1968 896 1968
WIRE 544 2000 544 1968
FLAG -48 -144 VDD
IOPIN -48 -144 BiDir
FLAG 80 1968 GND
IOPIN 80 1968 BiDir
FLAG -128 288 IN
IOPIN -128 288 In
FLAG 1760 784 OUT
IOPIN 1760 784 Out
FLAG 896 1728 In
IOPIN 896 1728 BiDir
FLAG 544 2000 0
FLAG 384 1744 VDD
IOPIN 384 1744 BiDir
SYMBOL ZZZ/LOGIC/74HC/74HC4538 352 112 R0
SYMATTR InstName U1
SYMBOL cap 224 208 R90
WINDOW 0 0 32 VBottom 2
WINDOW 3 32 32 VTop 2
SYMATTR InstName C1
SYMATTR Value 1µ
SYMBOL res 144 0 R0
SYMATTR InstName R1
SYMATTR Value 0.3
SYMBOL ZZZ/LOGIC/74HC/74hc4017 1184 496 R0
SYMATTR InstName U2
SYMBOL voltage 896 1792 R0
SYMATTR InstName V1
SYMATTR Value PULSE(0.1 4.8 0 20n 20n 0.13m 1m)
SYMBOL voltage 384 1808 R0
SYMATTR InstName V2
SYMATTR Value 5
SYMBOL ZZZ/LOGIC/74HC/74HC4538 800 816 R0
SYMATTR InstName U3
SYMBOL cap 672 912 R90
WINDOW 0 0 32 VBottom 2
WINDOW 3 32 32 VTop 2
SYMATTR InstName C2
SYMATTR Value 1µ
SYMBOL res 560 688 R0
SYMATTR InstName R2
SYMATTR Value 2k
SYMBOL ZZZ/LOGIC/CD4xxx/cd4013b 1584 704 R0
SYMATTR InstName U4
SYMBOL ZZZ/LOGIC/CD4xxx/cd4013b 1840 1376 R0
SYMATTR InstName U5
TEXT 88 -320 Left 2 !.tran .1 .1
TEXT 1656 256 Left 2 ;THIS LINE ACTS AS A CLOCK LINE
