Version 4
SHEET 1 980 680
WIRE -48 144 -80 144
WIRE 480 144 416 144
WIRE 416 288 416 144
WIRE -80 320 -80 144
WIRE 352 352 256 352
WIRE 576 352 480 352
WIRE 256 432 256 352
WIRE 256 560 256 512
WIRE 416 560 416 416
WIRE 416 560 256 560
WIRE -80 592 -80 400
WIRE 416 592 416 560
FLAG 480 144 VDD
IOPIN 480 144 BiDir
FLAG 416 592 0
FLAG -48 144 VDD
IOPIN -48 144 BiDir
FLAG -80 592 0
FLAG 576 352 OUT
IOPIN 576 352 BiDir
SYMBOL filter 416 352 R0
SYMATTR InstName X1
SYMBOL voltage -80 304 R0
SYMATTR InstName V1
SYMATTR Value 5
SYMBOL voltage 256 416 R0
WINDOW 123 24 38 Left 2
SYMATTR Value2 AC 1V
SYMATTR InstName V2
SYMATTR Value ""
TEXT 208 -64 Left 2 !.ac oct 100 10 100k
